
**** 12/02/18 15:05:44 ****** PSpice Lite (October 2012) ****** ID# 10813 ****

 ** Profile: "SCHEMATIC1-Sajol2"  [ D:\Assignment signal\Sajol-PSpiceFiles\SCHEMATIC1\Sajol2.sim ] 


 ****     CIRCUIT DESCRIPTION


******************************************************************************




** Creating circuit file "Sajol2.cir" 
** WARNING: THIS AUTOMATICALLY GENERATED FILE MAY BE OVERWRITTEN BY SUBSEQUENT SIMULATIONS

*Libraries: 
* Profile Libraries :
* Local Libraries :
* From [PSPICE NETLIST] section of C:\Users\sajol\AppData\Roaming\SPB_16.6\cdssetup\OrCAD_PSpice/16.6.0/PSpice.ini file:
.lib "nomd.lib" 

*Analysis directives: 
.AC DEC 100 100 1 Meg
----------------$
ERROR(ORPSIM-16103): Invalid value
.OPTIONS ADVCONV
.PROBE64 V(alias(*)) I(alias(*)) W(alias(*)) D(alias(*)) NOISE(alias(*)) 
.INC "..\SCHEMATIC1.net" 



**** INCLUDING SCHEMATIC1.net ****
* source SAJOL
V_V1         N000400 0 DC 0Vdc AC 1Vac 
R_R1         0 N00443  4k TC=0,0 
R_R2         N00350 N00508  4k TC=0,0 
R_R3         N00375 N00350  4k TC=0,0 
R_R4         N00401 N00375  4k TC=0,0 
R_R9         N00320 N00316  4K TC=0,0 
R_R10         0 N00320  4K TC=0,0 
R_R7         N00489 N00375  2.344k TC=0,0 
R_R8         0 N00489  4k TC=0,0 
C_C1         N00350 N00316  0.000721u  TC=0,0 
C_C2         N000400 N00401  0.00124u  TC=0,0 
C_C3         N00401 N00443  0.00124u  TC=0,0 
C_C4         0 N00508  0.000721u  TC=0,0 
E_U1         N00316 0 VALUE {LIMIT(V(N00508,N00320)*1E6,-15V,+15V)}
E_U2         N00375 0 VALUE {LIMIT(V(N00443,N00489)*1E6,-15V,+15V)}

**** RESUMING Sajol2.cir ****
.END
